/*--------------------------------*- C++ -*----------------------------------*\
  =========                 |
  \\      /  F ield         | OpenFOAM: The Open Source CFD Toolbox
   \\    /   O peration     | Website:  https://openfoam.org
    \\  /    A nd           | Version:  11
     \\/     M anipulation  |
\*---------------------------------------------------------------------------*/
FoamFile
{
    format      ascii;
    class       dictionary;
    object      blockMeshDict;
}
// * * * * * * * * * * * * * * * * * * * * * * * * * * * * * * * * * * * * * //
	xMin   -10; // L = 20
    xMax   10;
    yMin   -1; // H = 5
    yMax   4;
    zMin     0;
    zMax   1;
    xCells  80;
    yCells  20;
    zCells  $zMax;


convertToMeters 0.1;

vertices
(
    (-1 -2 $zMin)
	(1 -2 $zMin)
	(-10 0 $zMin) //2
	(-1 0 $zMin)
	(1 0 $zMin)
	(10 0 $zMin)
	(-10 4 $zMin) //6
	(-1 4 $zMin)
	(1 4 $zMin) //8
	(10 4 $zMin) //9
	
	(-1 -2 $zMax)	//10
	(1 -2 $zMax)
	(-10 0 $zMax) //12
	(-1 0 $zMax)
	(1 0 $zMax)	//14
	(10 0 $zMax)
	(-10 4 $zMax) //16
	(-1 4 $zMax)
	(1 4 $zMax) //18
	(10 4 $zMax) 
	


);

blocks
(
    hex (0 1 4 3 10 11 14 13) (20 20 1) simpleGrading (1 1 1)
	hex (2 3 7 6 12 13 17 16) (90 40 1) simpleGrading (1 1 1)
	hex (3 4 8 7 13 14 18 17) (20 40 1) simpleGrading (1 1 1)
	hex (4 5 9 8 14 15 19 18) (90 40 1) simpleGrading (1 1 1)
);

boundary
(
    inlet
    {
        type patch;
        faces
        (
            (2 6 16 12)
        );
    }
    walls
    {
        type wall;
        faces
        (
            (0 3 13 10)
            (1 4 14 11)
            //(3 4 14 13)
			(6 7 17 16)
			(7 8 18 17)
			(8 9 19 18)
			(2 3 13 12)
			(4 5 15 14)
			(0 1 11 10)
        );
    }
	outlet
    {
        type patch;
        faces
        (
            (5 15 19 9)
        );
    }
	
    frontAndBack
    {
        type empty;
        faces
        (
            (2 3 7 6)
            (3 4 8 7)
			(4 5 9 8)
			(12 13 17 16)
			(13 14 18 17)
			(14 15 19 18)
			(10 11 14 13)
			(0 1 4 3)
			
        );
    }
);


// ************************************************************************* //
